
 OpenBabel10072216333D

 94 94  0  0  0  0  0  0  0  0999 V2000
   -0.9761   -0.5698   -0.1233 O   0  0  0  0  0  0  0  0  0  0  0  0
   -0.2009   -2.3307    0.9927 O   0  0  0  0  0  0  0  0  0  0  0  0
  -28.5853    8.8688   -7.9138 C   0  0  0  0  0  0  0  0  0  0  0  0
  -30.0622    9.0645   -8.3861 C   0  0  0  0  0  0  0  0  0  0  0  0
  -30.5676   10.4509   -8.0745 C   0  0  0  0  0  0  0  0  0  0  0  0
  -27.6780   10.0815   -8.3185 C   0  0  0  0  0  0  0  0  0  0  0  0
  -29.7592   11.4418   -8.8962 C   0  0  0  0  0  0  0  0  0  0  0  0
  -28.2566   11.2418   -8.8080 C   0  0  0  0  0  0  0  0  0  0  0  0
  -28.5779    8.6873   -6.3724 C   0  0  0  0  0  0  0  0  0  0  0  0
  -28.1466    7.5548   -8.6181 C   0  0  0  0  0  0  0  0  0  0  0  0
  -26.1553   10.0420   -8.1986 C   0  0  0  0  0  0  0  0  0  0  0  0
  -27.4253   12.4134   -9.2924 C   0  0  0  0  0  0  0  0  0  0  0  0
  -25.4142    9.0842   -7.5973 C   0  0  0  0  0  0  0  0  0  0  0  0
  -23.9114    9.0900   -7.4990 C   0  0  0  0  0  0  0  0  0  0  0  0
  -23.0434   10.1827   -8.1052 C   0  0  0  0  0  0  0  0  0  0  0  0
  -23.3285    8.0594   -6.8351 C   0  0  0  0  0  0  0  0  0  0  0  0
  -21.8586    7.9155   -6.6493 C   0  0  0  0  0  0  0  0  0  0  0  0
  -21.3646    6.8590   -5.9761 C   0  0  0  0  0  0  0  0  0  0  0  0
  -19.9076    6.6010   -5.7221 C   0  0  0  0  0  0  0  0  0  0  0  0
  -18.8130    7.5334   -6.2134 C   0  0  0  0  0  0  0  0  0  0  0  0
  -19.5840    5.4847   -5.0243 C   0  0  0  0  0  0  0  0  0  0  0  0
  -18.1881    5.0929   -4.6935 C   0  0  0  0  0  0  0  0  0  0  0  0
  -17.9401    3.9724   -3.9984 C   0  0  0  0  0  0  0  0  0  0  0  0
  -16.5388    3.5901   -3.6732 C   0  0  0  0  0  0  0  0  0  0  0  0
  -16.1582    2.4860   -2.9793 C   0  0  0  0  0  0  0  0  0  0  0  0
  -14.6917    2.2808   -2.7573 C   0  0  0  0  0  0  0  0  0  0  0  0
  -17.1432    1.4691   -2.4293 C   0  0  0  0  0  0  0  0  0  0  0  0
  -14.1820    1.2300   -2.0873 C   0  0  0  0  0  0  0  0  0  0  0  0
  -12.0683    0.0983   -1.2619 C   0  0  0  0  0  0  0  0  0  0  0  0
  -12.7086    1.1043   -1.9133 C   0  0  0  0  0  0  0  0  0  0  0  0
  -10.5734    0.1578   -1.1987 C   0  0  0  0  0  0  0  0  0  0  0  0
   -7.4633   -1.5000    0.0101 C   0  0  0  0  0  0  0  0  0  0  0  0
  -12.7943   -1.0641   -0.6068 C   0  0  0  0  0  0  0  0  0  0  0  0
   -9.8184   -0.7732   -0.5854 C   0  0  0  0  0  0  0  0  0  0  0  0
   -8.3359   -0.6353   -0.5706 C   0  0  0  0  0  0  0  0  0  0  0  0
   -6.0041   -1.1785   -0.0877 C   0  0  0  0  0  0  0  0  0  0  0  0
   -7.8998   -2.7575    0.7418 C   0  0  0  0  0  0  0  0  0  0  0  0
   -5.0366   -1.9502    0.4430 C   0  0  0  0  0  0  0  0  0  0  0  0
   -3.6082   -1.5558    0.2989 C   0  0  0  0  0  0  0  0  0  0  0  0
   -2.5445   -2.2480    0.7877 C   0  0  0  0  0  0  0  0  0  0  0  0
   -2.6715   -3.5448    1.5634 C   0  0  0  0  0  0  0  0  0  0  0  0
   -1.1679   -1.7204    0.5597 C   0  0  0  0  0  0  0  0  0  0  0  0
  -30.7210    8.2964   -7.9231 H   0  0  0  0  0  0  0  0  0  0  0  0
  -30.1471    8.9387   -9.4908 H   0  0  0  0  0  0  0  0  0  0  0  0
  -31.6419   10.5545   -8.3404 H   0  0  0  0  0  0  0  0  0  0  0  0
  -30.4693   10.6640   -6.9913 H   0  0  0  0  0  0  0  0  0  0  0  0
  -30.0390   11.3923   -9.9713 H   0  0  0  0  0  0  0  0  0  0  0  0
  -30.0345   12.4507   -8.5184 H   0  0  0  0  0  0  0  0  0  0  0  0
  -29.2518    7.8545   -6.0771 H   0  0  0  0  0  0  0  0  0  0  0  0
  -27.5897    8.4530   -5.9489 H   0  0  0  0  0  0  0  0  0  0  0  0
  -28.9183    9.6061   -5.8553 H   0  0  0  0  0  0  0  0  0  0  0  0
  -28.1721    7.6834   -9.7220 H   0  0  0  0  0  0  0  0  0  0  0  0
  -27.1403    7.1913   -8.3721 H   0  0  0  0  0  0  0  0  0  0  0  0
  -28.8373    6.7246   -8.3523 H   0  0  0  0  0  0  0  0  0  0  0  0
  -25.6217   10.8669   -8.6201 H   0  0  0  0  0  0  0  0  0  0  0  0
  -26.8006   12.8118   -8.4651 H   0  0  0  0  0  0  0  0  0  0  0  0
  -26.7852   12.1029  -10.1451 H   0  0  0  0  0  0  0  0  0  0  0  0
  -28.0674   13.2459   -9.6511 H   0  0  0  0  0  0  0  0  0  0  0  0
  -25.8968    8.2519   -7.1319 H   0  0  0  0  0  0  0  0  0  0  0  0
  -22.4549   10.6760   -7.3029 H   0  0  0  0  0  0  0  0  0  0  0  0
  -22.3478    9.7335   -8.8453 H   0  0  0  0  0  0  0  0  0  0  0  0
  -23.5792   10.9839   -8.6360 H   0  0  0  0  0  0  0  0  0  0  0  0
  -23.9636    7.2859   -6.4085 H   0  0  0  0  0  0  0  0  0  0  0  0
  -21.2045    8.6653   -7.0596 H   0  0  0  0  0  0  0  0  0  0  0  0
  -22.0747    6.1335   -5.5843 H   0  0  0  0  0  0  0  0  0  0  0  0
  -18.2346    7.9166   -5.3463 H   0  0  0  0  0  0  0  0  0  0  0  0
  -18.1309    6.9799   -6.8929 H   0  0  0  0  0  0  0  0  0  0  0  0
  -19.1656    8.4150   -6.7711 H   0  0  0  0  0  0  0  0  0  0  0  0
  -20.3831    4.8306   -4.6817 H   0  0  0  0  0  0  0  0  0  0  0  0
  -17.3556    5.7119   -5.0127 H   0  0  0  0  0  0  0  0  0  0  0  0
  -18.7790    3.3664   -3.6875 H   0  0  0  0  0  0  0  0  0  0  0  0
  -15.7590    4.2614   -4.0277 H   0  0  0  0  0  0  0  0  0  0  0  0
  -14.0035    3.0213   -3.1598 H   0  0  0  0  0  0  0  0  0  0  0  0
  -16.9268    0.4740   -2.8714 H   0  0  0  0  0  0  0  0  0  0  0  0
  -17.0298    1.4093   -1.3266 H   0  0  0  0  0  0  0  0  0  0  0  0
  -18.2063    1.6772   -2.6261 H   0  0  0  0  0  0  0  0  0  0  0  0
  -14.8516    0.4895   -1.6837 H   0  0  0  0  0  0  0  0  0  0  0  0
  -12.1002    1.8936   -2.3505 H   0  0  0  0  0  0  0  0  0  0  0  0
  -10.0730    0.9988   -1.6743 H   0  0  0  0  0  0  0  0  0  0  0  0
  -12.4530   -2.0147   -1.0677 H   0  0  0  0  0  0  0  0  0  0  0  0
  -12.5556   -1.0798    0.4773 H   0  0  0  0  0  0  0  0  0  0  0  0
  -13.8921   -1.0517   -0.6871 H   0  0  0  0  0  0  0  0  0  0  0  0
  -10.3005   -1.6109   -0.1106 H   0  0  0  0  0  0  0  0  0  0  0  0
   -7.9258    0.2390   -1.0722 H   0  0  0  0  0  0  0  0  0  0  0  0
   -5.7125   -0.2731   -0.6159 H   0  0  0  0  0  0  0  0  0  0  0  0
   -7.4469   -3.6431    0.2487 H   0  0  0  0  0  0  0  0  0  0  0  0
   -7.5492   -2.7086    1.7940 H   0  0  0  0  0  0  0  0  0  0  0  0
   -8.9849   -2.9393    0.7799 H   0  0  0  0  0  0  0  0  0  0  0  0
   -5.3106   -2.8494    0.9685 H   0  0  0  0  0  0  0  0  0  0  0  0
   -3.4150   -0.6349   -0.2451 H   0  0  0  0  0  0  0  0  0  0  0  0
   -2.1167   -4.3435    1.0276 H   0  0  0  0  0  0  0  0  0  0  0  0
   -2.2185   -3.4119    2.5683 H   0  0  0  0  0  0  0  0  0  0  0  0
   -3.6969   -3.9147    1.7192 H   0  0  0  0  0  0  0  0  0  0  0  0
   -0.0868   -0.2199   -0.2760 H   0  0  0  0  0  0  0  0  0  0  0  0
  1 42  1  0  0  0  0
  1 94  1  0  0  0  0
  2 42  2  0  0  0  0
  3  4  1  0  0  0  0
  3  6  1  0  0  0  0
  3  9  1  0  0  0  0
  3 10  1  0  0  0  0
  4  5  1  0  0  0  0
  4 43  1  0  0  0  0
  4 44  1  0  0  0  0
  5  7  1  0  0  0  0
  5 45  1  0  0  0  0
  5 46  1  0  0  0  0
  6  8  2  0  0  0  0
  6 11  1  0  0  0  0
  7  8  1  0  0  0  0
  7 47  1  0  0  0  0
  7 48  1  0  0  0  0
  8 12  1  0  0  0  0
  9 49  1  0  0  0  0
  9 50  1  0  0  0  0
  9 51  1  0  0  0  0
 10 52  1  0  0  0  0
 10 53  1  0  0  0  0
 10 54  1  0  0  0  0
 11 13  2  0  0  0  0
 11 55  1  0  0  0  0
 12 56  1  0  0  0  0
 12 57  1  0  0  0  0
 12 58  1  0  0  0  0
 13 14  1  0  0  0  0
 13 59  1  0  0  0  0
 14 15  1  0  0  0  0
 14 16  2  0  0  0  0
 15 60  1  0  0  0  0
 15 61  1  0  0  0  0
 15 62  1  0  0  0  0
 16 17  1  0  0  0  0
 16 63  1  0  0  0  0
 17 18  2  0  0  0  0
 17 64  1  0  0  0  0
 18 19  1  0  0  0  0
 18 65  1  0  0  0  0
 19 20  1  0  0  0  0
 19 21  2  0  0  0  0
 20 66  1  0  0  0  0
 20 67  1  0  0  0  0
 20 68  1  0  0  0  0
 21 22  1  0  0  0  0
 21 69  1  0  0  0  0
 22 23  2  0  0  0  0
 22 70  1  0  0  0  0
 23 24  1  0  0  0  0
 23 71  1  0  0  0  0
 24 25  2  0  0  0  0
 24 72  1  0  0  0  0
 25 26  1  0  0  0  0
 25 27  1  0  0  0  0
 26 28  2  0  0  0  0
 26 73  1  0  0  0  0
 27 74  1  0  0  0  0
 27 75  1  0  0  0  0
 27 76  1  0  0  0  0
 28 30  1  0  0  0  0
 28 77  1  0  0  0  0
 29 30  2  0  0  0  0
 29 31  1  0  0  0  0
 29 33  1  0  0  0  0
 30 78  1  0  0  0  0
 31 34  2  0  0  0  0
 31 79  1  0  0  0  0
 32 35  2  0  0  0  0
 32 36  1  0  0  0  0
 32 37  1  0  0  0  0
 33 80  1  0  0  0  0
 33 81  1  0  0  0  0
 33 82  1  0  0  0  0
 34 35  1  0  0  0  0
 34 83  1  0  0  0  0
 35 84  1  0  0  0  0
 36 38  2  0  0  0  0
 36 85  1  0  0  0  0
 37 86  1  0  0  0  0
 37 87  1  0  0  0  0
 37 88  1  0  0  0  0
 38 39  1  0  0  0  0
 38 89  1  0  0  0  0
 39 40  2  0  0  0  0
 39 90  1  0  0  0  0
 40 41  1  0  0  0  0
 40 42  1  0  0  0  0
 41 91  1  0  0  0  0
 41 92  1  0  0  0  0
 41 93  1  0  0  0  0
M  END
