
 OpenBabel03022014133D

 15 14  0  0  0  0  0  0  0  0999 V2000
    1.0641    2.9240    2.4336 C   0  0  0  0  0  0  0  0  0  0  0  0
    0.8440    3.0530    3.9522 C   0  0  0  0  0  0  0  0  0  0  0  0
    2.1362    3.5274    4.6425 C   0  0  0  0  0  0  0  0  0  0  0  0
    0.4352    1.6877    4.5236 C   0  0  0  0  0  0  0  0  0  0  0  0
   -0.1979    3.9637    4.2092 O   0  0  0  0  0  0  0  0  0  0  0  0
    0.1305    2.5852    1.9352 H   0  0  0  0  0  0  0  0  0  0  0  0
    1.8698    2.1906    2.2139 H   0  0  0  0  0  0  0  0  0  0  0  0
    1.3549    3.9037    1.9976 H   0  0  0  0  0  0  0  0  0  0  0  0
    2.9634    2.8060    4.4670 H   0  0  0  0  0  0  0  0  0  0  0  0
    2.4473    4.5185    4.2480 H   0  0  0  0  0  0  0  0  0  0  0  0
    1.9763    3.6239    5.7379 H   0  0  0  0  0  0  0  0  0  0  0  0
   -0.5041    1.3340    4.0463 H   0  0  0  0  0  0  0  0  0  0  0  0
    1.2290    0.9302    4.3452 H   0  0  0  0  0  0  0  0  0  0  0  0
    0.2590    1.7634    5.6183 H   0  0  0  0  0  0  0  0  0  0  0  0
    0.0673    4.8467    3.8392 H   0  0  0  0  0  0  0  0  0  0  0  0
  1  2  1  0  0  0  0
  1  6  1  0  0  0  0
  1  7  1  0  0  0  0
  1  8  1  0  0  0  0
  2  3  1  0  0  0  0
  2  4  1  0  0  0  0
  2  5  1  0  0  0  0
  3  9  1  0  0  0  0
  3 10  1  0  0  0  0
  3 11  1  0  0  0  0
  4 12  1  0  0  0  0
  4 13  1  0  0  0  0
  4 14  1  0  0  0  0
  5 15  1  0  0  0  0
M  END
