
 OpenBabel03022014313D

  3  2  0  0  0  0  0  0  0  0999 V2000
    1.3117   -0.0195    0.0924 S   0  0  0  0  0  0  0  0  0  0  0  0
    0.2483    0.8839   -0.1075 C   0  0  0  0  0  0  0  0  0  0  0  0
   -0.8150    1.7874   -0.3074 S   0  0  0  0  0  0  0  0  0  0  0  0
  1  2  2  0  0  0  0
  2  3  2  0  0  0  0
M  END
