
 OpenBabel02202013213D

 18 18  0  0  0  0  0  0  0  0999 V2000
   -4.3491    6.4226    2.8106 O   0  0  0  0  0  0  0  0  0  0  0  0
   -4.4375    5.3025    2.3261 C   0  0  0  0  0  0  0  0  0  0  0  0
   -5.3610    4.2982    2.9370 C   0  0  0  0  0  0  0  0  0  0  0  0
   -3.7058    4.9572    1.2362 O   0  0  0  0  0  0  0  0  0  0  0  0
   -2.8299    5.8187    0.6073 C   0  0  0  0  0  0  0  0  0  0  0  0
   -2.1963    5.1245   -0.5526 C   0  0  0  0  0  0  0  0  0  0  0  0
   -0.9042    4.9258   -0.6803 O   0  0  0  0  0  0  0  0  0  0  0  0
   -0.6802    4.2911   -1.8094 C   0  0  0  0  0  0  0  0  0  0  0  0
   -1.8807    4.0634   -2.4524 C   0  0  0  0  0  0  0  0  0  0  0  0
   -2.8574    4.6001   -1.6439 C   0  0  0  0  0  0  0  0  0  0  0  0
   -4.7793    3.4114    3.2641 H   0  0  0  0  0  0  0  0  0  0  0  0
   -6.1149    3.9837    2.1857 H   0  0  0  0  0  0  0  0  0  0  0  0
   -5.8866    4.7285    3.8163 H   0  0  0  0  0  0  0  0  0  0  0  0
   -3.3753    6.7148    0.2390 H   0  0  0  0  0  0  0  0  0  0  0  0
   -2.0395    6.1389    1.3209 H   0  0  0  0  0  0  0  0  0  0  0  0
    0.2992    4.0001   -2.1647 H   0  0  0  0  0  0  0  0  0  0  0  0
   -2.0250    3.5639   -3.4010 H   0  0  0  0  0  0  0  0  0  0  0  0
   -3.9236    4.6078   -1.8285 H   0  0  0  0  0  0  0  0  0  0  0  0
  1  2  2  0  0  0  0
  2  3  1  0  0  0  0
  2  4  1  0  0  0  0
  3 11  1  0  0  0  0
  3 12  1  0  0  0  0
  3 13  1  0  0  0  0
  4  5  1  0  0  0  0
  5  6  1  0  0  0  0
  5 14  1  0  0  0  0
  5 15  1  0  0  0  0
  6 10  2  0  0  0  0
  6  7  1  0  0  0  0
  8  7  1  0  0  0  0
  8 16  1  0  0  0  0
  9  8  2  0  0  0  0
  9 17  1  0  0  0  0
 10  9  1  0  0  0  0
 10 18  1  0  0  0  0
M  END
