
 OpenBabel03022015423D

 18 19  0  0  0  0  0  0  0  0999 V2000
    6.4783    1.7877    0.9191 C   0  0  0  0  0  0  0  0  0  0  0  0
    5.8138    0.5591    0.9551 C   0  0  0  0  0  0  0  0  0  0  0  0
    7.6911    1.9165    1.5129 F   0  0  0  0  0  0  0  0  0  0  0  0
    5.9016    2.8834    0.2756 C   0  0  0  0  0  0  0  0  0  0  0  0
    4.6529    2.7646   -0.3401 C   0  0  0  0  0  0  0  0  0  0  0  0
    6.5573    4.0706    0.2479 F   0  0  0  0  0  0  0  0  0  0  0  0
    3.9646    1.5335   -0.3157 C   0  0  0  0  0  0  0  0  0  0  0  0
    4.1213    3.8511   -0.9571 F   0  0  0  0  0  0  0  0  0  0  0  0
    6.4042   -0.4860    1.5900 F   0  0  0  0  0  0  0  0  0  0  0  0
    4.5523    0.4170    0.3400 C   0  0  0  0  0  0  0  0  0  0  0  0
    3.8640   -0.8142    0.3644 C   0  0  0  0  0  0  0  0  0  0  0  0
    2.7031    1.3914   -0.9308 C   0  0  0  0  0  0  0  0  0  0  0  0
    2.1127    2.4365   -1.5657 F   0  0  0  0  0  0  0  0  0  0  0  0
    2.0386    0.1628   -0.8948 C   0  0  0  0  0  0  0  0  0  0  0  0
    2.6153   -0.9330   -0.2513 C   0  0  0  0  0  0  0  0  0  0  0  0
    0.8258    0.0339   -1.4886 F   0  0  0  0  0  0  0  0  0  0  0  0
    1.9596   -2.1201   -0.2236 F   0  0  0  0  0  0  0  0  0  0  0  0
    4.3956   -1.9007    0.9814 F   0  0  0  0  0  0  0  0  0  0  0  0
  1  3  1  0  0  0  0
  1  4  2  0  0  0  0
  2  9  1  0  0  0  0
  2  1  1  0  0  0  0
  4  6  1  0  0  0  0
  4  5  1  0  0  0  0
  5  8  1  0  0  0  0
  5  7  2  0  0  0  0
  7 12  1  0  0  0  0
 10  2  2  0  0  0  0
 10  7  1  0  0  0  0
 11 18  1  0  0  0  0
 11 10  1  0  0  0  0
 12 13  1  0  0  0  0
 14 16  1  0  0  0  0
 14 15  1  0  0  0  0
 14 12  2  0  0  0  0
 15 17  1  0  0  0  0
 15 11  2  0  0  0  0
M  END
