
 OpenBabel03032015123D

  5  4  0  0  0  0  0  0  0  0999 V2000
   -0.0210    2.0555    2.1721 Cl  0  0  0  0  0  0  0  0  0  0  0  0
    1.1670    1.1065    1.2507 C   0  0  0  0  0  0  0  0  0  0  0  0
    0.3326    0.1877   -0.0225 Cl  0  0  0  0  0  0  0  0  0  0  0  0
    2.0020   -0.0199    2.3439 Cl  0  0  0  0  0  0  0  0  0  0  0  0
    2.3544    2.2025    0.5091 Cl  0  0  0  0  0  0  0  0  0  0  0  0
  1  2  1  0  0  0  0
  2  3  1  0  0  0  0
  2  4  1  0  0  0  0
  2  5  1  0  0  0  0
M  END
